generated/mvlv29840.m
function mpc = mvlv29840
%MVLV29840  Synthetic radial MV/LV distribution grid, balanced.
%   Generated by benchmark-grids/scripts/generate_distribution.py (seed 42):
%   gridoxide 0.0.2 generate_grid, exported by pgm_to_matpower.py
%   (see its docstring for every modelling decision) - PROVENANCE.md.

%% MATPOWER Case Format : Version 2
mpc.version = '2';

mpc.baseMVA = 100;

%% bus data
%	bus_i	type	Pd	Qd	Gs	Bs	area	Vm	Va	baseKV	zone	Vmax	Vmin
mpc.bus = [
	74649	3	0	0	0	0	1	1.05	0	150	1	1.1	0.9;
	1	1	0	0	0.08	-1.19733036377	1	1	0	150	1	1.1	0.9;
	3	1	0	0	0.0800580248684	-1.19733036377	1	1	0	10.5	1	1.1	0.9;
	12	1	0	0	0.000506009861414	-0.00748331477355	1	1	0	10.5	1	1.1	0.9;
	14	1	0	0	0.000453515086074	-0.00678758709619	1	1	0	0.4	1	1.1	0.9;
	16	1	0	0	1.10890580891e-10	0	1	1	0	0.4	1	1.1	0.9;
	17	1	1.82431414278e-09	1.36823560708e-09	3.60876935778e-11	0	1	1	0	0.4	1	1.1	0.9;
	21	1	0	0	1.01238026653e-10	0	1	1	0	0.4	1	1.1	0.9;
	22	1	1.61461454646e-09	1.21096090984e-09	2.72514863094e-11	0	1	1	0	0.4	1	1.1	0.9;
	26	1	0	0	1.24861608605e-10	0	1	1	0	0.4	1	1.1	0.9;
	27	1	1.35102397979e-09	1.01326798484e-09	5.43826437626e-11	0	1	1	0	0.4	1	1.1	0.9;
	31	1	0	0	1.35981058308e-10	0	1	1	0	0.4	1	1.1	0.9;
	32	1	1.48029374803e-09	1.11022031102e-09	5.6949510356e-11	0	1	1	0	0.4	1	1.1	0.9;
	36	1	0	0	9.6584698304e-11	0	1	1	0	0.4	1	1.1	0.9;
	37	1	1.87054616789e-09	1.40290962592e-09	2.20355531016e-11	0	1	1	0	0.4	1	1.1	0.9;
	41	1	0	0	9.58699224469e-11	0	1	1	0	0.4	1	1.1	0.9;
	42	1	1.97147538147e-09	1.4786065361e-09	3.16958326274e-11	0	1	1	0	0.4	1	1.1	0.9;
	46	1	0	0	9.88183129481e-11	0	1	1	0	0.4	1	1.1	0.9;
	47	1	1.89832957756e-09	1.42374718317e-09	2.78854864493e-11	0	1	1	0	0.4	1	1.1	0.9;
	51	1	0	0	1.46513559314e-10	0	1	1	0	0.4	1	1.1	0.9;
	52	1	1.69081872764e-09	1.26811404573e-09	6.8931770673e-11	0	1	1	0	0.4	1	1.1	0.9;
	56	1	0	0	1.44075893692e-10	0	1	1	0	0.4	1	1.1	0.9;
	57	1	1.74567983491e-09	1.30925987618e-09	7.53948064821e-11	0	1	1	0	0.4	1	1.1	0.9;
	61	1	0	0	9.9195750822e-11	0	1	1	0	0.4	1	1.1	0.9;
	62	1	1.77417554571e-09	1.33063165928e-09	2.61242852725e-11	0	1	1	0	0.4	1	1.1	0.9;
	66	1	0	0	1.60161873693e-10	0	1	1	0	0.4	1	1.1	0.9;
	67	1	1.58675081669e-09	1.19006311252e-09	7.77991006774e-11	0	1	1	0	0.4	1	1.1	0.9;
	71	1	0	0	1.12301725354e-10	0	1	1	0	0.4	1	1.1	0.9;
	72	1	1.57018046682e-09	1.17763535011e-09	3.21610512574e-11	0	1	1	0	0.4	1	1.1	0.9;
	76	1	0	0	1.41735240823e-10	0	1	1	0	0.4	1	1.1	0.9;
	77	1	1.38093500639e-09	1.03570125479e-09	6.59370780729e-11	0	1	1	0	0.4	1	1.1	0.9;
	81	1	0	0	1.13088741241e-10	0	1	1	0	0.4	1	1.1	0.9;
	82	1	1.6415068079e-09	1.23113010593e-09	3.74883031067e-11	0	1	1	0	0.4	1	1.1	0.9;
	86	1	0	0	1.15619323954e-10	0	1	1	0	0.4	1	1.1	0.9;
	87	1	1.54952182294e-09	1.16214136721e-09	3.58545483069e-11	0	1	1	0	0.4	1	1.1	0.9;
	91	1	0	0	1.56836922472e-10	0	1	1	0	0.4	1	1.1	0.9;
	92	1	1.60077652468e-09	1.20058239351e-09	7.38153175499e-11	0	1	1	0	0.4	1	1.1	0.9;
	96	1	0	0	1.36743428513e-10	0	1	1	0	0.4	1	1.1	0.9;
	97	1	1.81194284715e-09	1.35895713536e-09	5.83915142736e-11	0	1	1	0	0.4	1	1.1	0.9;
	101	1	0	0	1.46133489632e-10	0	1	1	0	0.4	1	1.1	0.9;
	102	1	1.7619012468e-09	1.3214259351e-09	7.89792004189e-11	0	1	1	0	0.4	1	1.1	0.9;
	106	1	0	0	1.36050478036e-10	0	1	1	0	0.4	1	1.1	0.9;
	107	1	1.69265152644e-09	1.26948864483e-09	6.9921084944e-11	0	1	1	0	0.4	1	1.1	0.9;
	111	1	0	0	1.30704277247e-10	0	1	1	0	0.4	1	1.1	0.9;
	112	1	1.57466429581e-09	1.18099822186e-09	5.94518750195e-11	0	1	1	0	0.4	1	1.1	0.9;
	116	1	0	0	1.3798711152e-10	0	1	1	0	0.4	1	1.1	0.9;
	117	1	1.90740193978e-09	1.43055145483e-09	7.06209411244e-11	0	1	1	0	0.4	1	1.1	0.9;
	121	1	0	0	1.34586404783e-10	0	1	1	0	0.4	1	1.1	0.9;
	122	1	1.73093935382e-09	1.29820451537e-09	6.57382417412e-11	0	1	1	0	0.4	1	1.1	0.9;
	126	1	0	0	1.28343954396e-10	0	1	1	0	0.4	1	1.1	0.9;
	127	1	1.50094274665e-09	1.12570705999e-09	5.19636693732e-11	0	1	1	0	0.4	1	1.1	0.9;
	131	1	0	0	1.01720442609e-10	0	1	1	0	0.4	1	1.1	0.9;
	132	1	1.92319230009e-09	1.44239422506e-09	2.90419756861e-11	0	1	1	0	0.4	1	1.1	0.9;
	136	1	0	0	1.16155052636e-10	0	1	1	0	0.4	1	1.1	0.9;
	137	1	1.43877183623e-09	1.07907887717e-09	4.06454314391e-11	0	1	1	0	0.4	1	1.1	0.9;
	141	1	0	0	1.2248965908e-10	0	1	1	0	0.4	1	1.1	0.9;
	142	1	1.6670574087e-09	1.25029305653e-09	3.86929547026e-11	0	1	1	0	0.4	1	1.1	0.9;
	146	1	0	0	1.57993921277e-10	0	1	1	0	0.4	1	1.1	0.9;
	147	1	1.53229652763e-09	1.14922239572e-09	7.8060733769e-11	0	1	1	0	0.4	1	1.1	0.9;
	151	1	0	0	1.11542734927e-10	0	1	1	0	0.4	1	1.1	0.9;
	152	1	1.84167386672e-09	1.38125540004e-09	3.15246335047e-11	0	1	1	0	0.4	1	1.1	0.9;
	156	1	0	0	1.44374355473e-10	0	1	1	0	0.4	1	1.1	0.9;
	157	1	1.65907047202e-09	1.24430285401e-09	6.04512051258e-11	0	1	1	0	0.4	1	1.1	0.9;
	161	1	0	0	1.58878493466e-10	0	1	1	0	0.4	1	1.1	0.9;
	162	1	1.53834275027e-09	1.1537570627e-09	7.55414065655e-11	0	1	1	0	0.4	1	1.1	0.9;
	166	1	0	0	1.67790758783e-10	0	1	1	0	0.4	1	1.1	0.9;
	167	1	1.39043563471e-09	1.04282672603e-09	8.30167006993e-11	0	1	1	0	0.4	1	1.1	0.9;
	171	1	0	0	1.41926746742e-10	0	1	1	0	0.4	1	1.1	0.9;
	172	1	1.41717367435e-09	1.06288025576e-09	5.61561425358e-11	0	1	1	0	0.4	1	1.1	0.9;
	176	1	0	0	1.17894809584e-10	0	1	1	0	0.4	1	1.1	0.9;
	177	1	1.68511585828e-09	1.26383689371e-09	3.23213977315e-11	0	1	1	0	0.4	1	1.1	0.9;
	181	1	0	0	1.64034577308e-10	0	1	1	0	0.4	1	1.1	0.9;
	182	1	1.83684346442e-09	1.37763259832e-09	8.18472049609e-11	0	1	1	0	0.4	1	1.1	0.9;
	186	1	0	0	1.28735843338e-10	0	1	1	0	0.4	1	1.1	0.9;
	187	1	1.78112463976e-09	1.33584347982e-09	4.74858046452e-11	0	1	1	0	0.4	1	1.1	0.9;
	191	1	0	0	1.22123198863e-10	0	1	1	0	0.4	1	1.1	0.9;
	192	1	1.49860374244e-09	1.12395280683e-09	5.08896351053e-11	0	1	1	0	0.4	1	1.1	0.9;
	196	1	0	0	1.25989166266e-10	0	1	1	0	0.4	1	1.1	0.9;
	197	1	1.72562674294e-09	1.29422005721e-09	5.75317984697e-11	0	1	1	0	0.4	1	1.1	0.9;
	201	1	0	0	9.46103077707e-11	0	1	1	0	0.4	1	1.1	0.9;
	202	1	1.37826688541e-09	1.03370016406e-09	2.54316780587e-11	0	1	1	0	0.4	1	1.1	0.9;
	206	1	0	0	9.78939727389e-11	0	1	1	0	0.4	1	1.1	0.9;
	207	1	1.77931851886e-09	1.33448888915e-09	3.70469663847e-11	0	1	1	0	0.4	1	1.1	0.9;
	211	1	0	0	1.13143538695e-10	0	1	1	0	0.4	1	1.1	0.9;
	212	1	1.71402872888e-09	1.28552154666e-09	8.22752137534e-11	0	1	1	0	0.4	1	1.1	0.9;
	216	1	0	0	1.49478700646e-10	0	1	1	0	0.4	1	1.1	0.9;
	217	1	1.46027327624e-09	1.09520495718e-09	7.39742592233e-11	0	1	1	0	0.4	1	1.1	0.9;
	221	1	0	0	1.2297390738e-10	0	1	1	0	0.4	1	1.1	0.9;
	222	1	1.64468311202e-09	1.23351233402e-09	4.90800426164e-11	0	1	1	0	0.4	1	1.1	0.9;
	226	1	0	0	1.57995533237e-10	0	1	1	0	0.4	1	1.1	0.9;
	227	1	1.39894524743e-09	1.04920893558e-09	8.54298629823e-11	0	1	1	0	0.4	1	1.1	0.9;
	231	1	0	0	1.46799206725e-10	0	1	1	0	0.4	1	1.1	0.9;
	232	1	1.49910422261e-09	1.12432816696e-09	7.74871350872e-11	0	1	1	0	0.4	1	1.1	0.9;
	236	1	0	0	1.1978514147e-10	0	1	1	0	0.4	1	1.1	0.9;
	237	1	1.51903009644e-09	1.13927257233e-09	4.89700060311e-11	0	1	1	0	0.4	1	1.1	0.9;
	241	1	0	0	1.56253034445e-10	0	1	1	0	0.4	1	1.1	0.9;
	242	1	1.70021687497e-09	1.27516265622e-09	7.74661629832e-11	0	1	1	0	0.4	1	1.1	0.9;
	246	1	0	0	1.54079596891e-10	0	1	1	0	0.4	1	1.1	0.9;
	247	1	1.97933083819e-09	1.48449812864e-09	7.58242530429e-11	0	1	1	0	0.4	1	1.1	0.9;
	251	1	0	0	1.2210208839e-10	0	1	1	0	0.4	1	1.1	0.9;
	252	1	1.90976692935e-09	1.43232519702e-09	5.28266273741e-11	0	1	1	0	0.4	1	1.1	0.9;
	256	1	0	0	1.55019694031e-10	0	1	1	0	0.4	1	1.1	0.9;
	257	1	1.51013537211e-09	1.13260152909e-09	8.55040189355e-11	0	1	1	0	0.4	1	1.1	0.9;
	261	1	0	0	1.58118494335e-10	0	1	1	0	0.4	1	1.1	0.9;
	262	1	1.99694845966e-09	1.49771134475e-09	8.36890001335e-11	0	1	1	0	0.4	1	1.1	0.9;
	266	1	0	0	1.10608279084e-10	0	1	1	0	0.4	1	1.1	0.9;
	267	1	1.53113855033e-09	1.14835391275e-09	3.16515663225e-11	0	1	1	0	0.4	1	1.1	0.9;
	271	1	0	0	1.01025711352e-10	0	1	1	0	0.4	1	1.1	0.9;
	272	1	1.54240320651e-09	1.15680240488e-09	2.55667971009e-11	0	1	1	0	0.4	1	1.1	0.9;
	276	1	0	0	1.47197267609e-10	0	1	1	0	0.4	1	1.1	0.9;
	277	1	1.68741742351e-09	1.26556306764e-09	8.12294920851e-11	0	1	1	0	0.4	1	1.1	0.9;
	281	1	0	0	9.85743136763e-11	0	1	1	0	0.4	1	1.1	0.9;
	282	1	1.7300234043e-09	1.29751755323e-09	3.36635073548e-11	0	1	1	0	0.4	1	1.1	0.9;
	286	1	0	0	1.46995972847e-10	0	1	1	0	0.4	1	1.1	0.9;
	287	1	1.71311694009e-09	1.28483770507e-09	8.26695783203e-11	0	1	1	0	0.4	1	1.1	0.9;
	291	1	0	0	8.99912335835e-11	0	1	1	0	0.4	1	1.1	0.9;
	292	1	1.77158210965e-09	1.32868658224e-09	2.69301641623e-11	0	1	1	0	0.4	1	1.1	0.9;
	296	1	0	0	1.04853758334e-10	0	1	1	0	0.4	1	1.1	0.9;
	297	1	1.77981731651e-09	1.33486298738e-09	3.85228498689e-11	0	1	1	0	0.4	1	1.1	0.9;
	301	1	0	0	1.05300517968e-10	0	1	1	0	0.4	1	1.1	0.9;
	302	1	1.76366719256e-09	1.32275039442e-09	3.01006288494e-11	0	1	1	0	0.4	1	1.1	0.9;
	306	1	0	0	1.68064163003e-10	0	1	1	0	0.4	1	1.1	0.9;
	307	1	1.33954363792e-09	1.00465772844e-09	8.22894821361e-11	0	1	1	0	0.4	1	1.1	0.9;
	311	1	0	0	1.1220063994e-10	0	1	1	0	0.4	1	1.1	0.9;
	312	1	1.47543620818e-09	1.10657715613e-09	2.63645637404e-11	0	1	1	0	0.4	1	1.1	0.9;
	316	1	0	0	1.52431310708e-10	0	1	1	0	0.4	1	1.1	0.9;
	317	1	1.91951349499e-09	1.43963512124e-09	7.87315683008e-11	0	1	1	0	0.4	1	1.1	0.9;
	321	1	0	0	1.43522881198e-10	0	1	1	0	0.4	1	1.1	0.9;
	322	1	1.80235995006e-09	1.35176996254e-09	7.56762416416e-11	0	1	1	0	0.4	1	1.1	0.9;
	326	1	0	0	1.4407546446e-10	0	1	1	0	0.4	1	1.1	0.9;
	327	1	1.70306818833e-09	1.27730114124e-09	6.49200587904e-11	0	1	1	0	0.4	1	1.1	0.9;
	331	1	0	0	1.09828862105e-10	0	1	1	0	0.4	1	1.1	0.9;
	332	1	1.41028578028e-09	1.05771433521e-09	3.03219253313e-11	0	1	1	0	0.4	1	1.1	0.9;
	336	1	0	0	1.0813581214e-10	0	1	1	0	0.4	1	1.1	0.9;
	337	1	1.73655321802e-09	1.30241491352e-09	3.92738888888e-11	0	1	1	0	0.4	1	1.1	0.9;
	341	1	0	0	1.36698985254e-10	0	1	1	0	0.4	1	1.1	0.9;
	342	1	1.50932260109e-09	1.13199195082e-09	6.27397147818e-11	0	1	1	0	0.4	1	1.1	0.9;
	346	1	0	0	1.48127736644e-10	0	1	1	0	0.4	1	1.1	0.9;
	347	1	1.39486564514e-09	1.04614923386e-09	7.64776141083e-11	0	1	1	0	0.4	1	1.1	0.9;
	351	1	0	0	1.12517242899e-10	0	1	1	0	0.4	1	1.1	0.9;
	352	1	1.42054644047e-09	1.06540983035e-09	4.32427880951e-11	0	1	1	0	0.4	1	1.1	0.9;
	356	1	0	0	1.27111979179e-10	0	1	1	0	0.4	1	1.1	0.9;
	357	1	1.61845794599e-09	1.21384345949e-09	5.73864799207e-11	0	1	1	0	0.4	1	1.1	0.9;
	361	1	0	0	1.4995404035e-10	0	1	1	0	0.4	1	1.1	0.9;
	362	1	1.93595238104e-09	1.45196428578e-09	7.88769593641e-11	0	1	1	0	0.4	1	1.1	0.9;
	366	1	0	0	1.3383582361e-10	0	1	1	0	0.4	1	1.1	0.9;
	367	1	1.43206252371e-09	1.07404689278e-09	5.93855179271e-11	0	1	1	0	0.4	1	1.1	0.9;
	371	1	0	0	1.45315829324e-10	0	1	1	0	0.4	1	1.1	0.9;
	372	1	1.86408153659e-09	1.39806115244e-09	7.99063398017e-11	0	1	1	0	0.4	1	1.1	0.9;
	376	1	0	0	1.12838994532e-10	0	1	1	0	0.4	1	1.1	0.9;
	377	1	1.40186241445e-09	1.05139681084e-09	3.77942826778e-11	0	1	1	0	0.4	1	1.1	0.9;
	381	1	0	0	1.56347692781e-10	0	1	1	0	0.4	1	1.1	0.9;
	382	1	1.95050921505e-09	1.46288191128e-09	7.02121387493e-11	0	1	1	0	0.4	1	1.1	0.9;
	386	1	0	0	1.56887287994e-10	0	1	1	0	0.4	1	1.1	0.9;
	387	1	1.92094413644e-09	1.44070810233e-09	7.41866003054e-11	0	1	1	0	0.4	1	1.1	0.9;
	391	1	0	0	1.23459344811e-10	0	1	1	0	0.4	1	1.1	0.9;
	392	1	1.95387725737e-09	1.46540794302e-09	4.31538844838e-11	0	1	1	0	0.4	1	1.1	0.9;
	396	1	0	0	1.21183000927e-10	0	1	1	0	0.4	1	1.1	0.9;
	397	1	1.85824967276e-09	1.39368725457e-09	3.89144993093e-11	0	1	1	0	0.4	1	1.1	0.9;
	401	1	0	0	1.52237272115e-10	0	1	1	0	0.4	1	1.1	0.9;
	402	1	1.48162247836e-09	1.11121685877e-09	7.72874666337e-11	0	1	1	0	0.4	1	1.1	0.9;
	406	1	0	0	1.38306080316e-10	0	1	1	0	0.4	1	1.1	0.9;
	407	1	1.48506365827e-09	1.1137977437e-09	7.31863260102e-11	0	1	1	0	0.4	1	1.1	0.9;
	411	1	0	0	7.46482273052e-11	0	1	1	0	0.4	1	1.1	0.9;
	412	1	1.90956862802e-09	1.43217647102e-09	4.28994739574e-11	0	1	1	0	0.4	1	1.1	0.9;
	416	1	0	0	1.28319339801e-10	0	1	1	0	0.4	1	1.1	0.9;
	417	1	1.9874331248e-09	1.4905748436e-09	4.75302920515e-11	0	1	1	0	0.4	1	1.1	0.9;
	421	1	0	0	1.14529954017e-10	0	1	1	0	0.4	1	1.1	0.9;
	422	1	1.98026707401e-09	1.48520030551e-09	2.90932018142e-11	0	1	1	0	0.4	1	1.1	0.9;
	426	1	0	0	1.21214329695e-10	0	1	1	0	0.4	1	1.1	0.9;
	427	1	1.40560169814e-09	1.05420127361e-09	3.88276527338e-11	0	1	1	0	0.4	1	1.1	0.9;
	431	1	0	0	1.15982624366e-10	0	1	1	0	0.4	1	1.1	0.9;
	432	1	1.73747256887e-09	1.30310442665e-09	4.19537700355e-11	0	1	1	0	0.4	1	1.1	0.9;
	436	1	0	0	1.22508137124e-10	0	1	1	0	0.4	1	1.1	0.9;
	437	1	1.50314833743e-09	1.12736125307e-09	5.90015517361e-11	0	1	1	0	0.4	1	1.1	0.9;
	441	1	0	0	1.50230754975e-10	0	1	1	0	0.4	1	1.1	0.9;
	442	1	1.6923013314e-09	1.26922599855e-09	8.1630739552e-11	0	1	1	0	0.4	1	1.1	0.9;
	446	1	0	0	1.11987017785e-10	0	1	1	0	0.4	1	1.1	0.9;
	447	1	1.62086493308e-09	1.21564869981e-09	3.43904023714e-11	0	1	1	0	0.4	1	1.1	0.9;
	451	1	0	0	1.36034107774e-10	0	1	1	0	0.4	1	1.1	0.9;
	452	1	1.41641687711e-09	1.06231265783e-09	6.46298415571e-11	0	1	1	0	0.4	1	1.1	0.9;
	456	1	0	0	1.12321222454e-10	0	1	1	0	0.4	1	1.1	0.9;
	457	1	1.60160025804e-09	1.20120019353e-09	4.809536335e-11	0	1	1	0	0.4	1	1.1	0.9;
	461	1	0	0	1.21694877047e-10	0	1	1	0	0.4	1	1.1	0.9;
	462	1	1.96024244715e-09	1.47018183537e-09	4.88769372375e-11	0	1	1	0	0.4	1	1.1	0.9;
	466	1	0	0	1.36899962828e-10	0	1	1	0	0.4	1	1.1	0.9;
	467	1	1.53396658304e-09	1.15047493728e-09	6.15256663877e-11	0	1	1	0	0.4	1	1.1	0.9;
	471	1	0	0	1.02212819158e-10	0	1	1	0	0.4	1	1.1	0.9;
	472	1	1.85717255165e-09	1.39287941374e-09	3.52429223939e-11	0	1	1	0	0.4	1	1.1	0.9;
	476	1	0	0	1.24321996504e-10	0	1	1	0	0.4	1	1.1	0.9;
	477	1	1.78375148879e-09	1.3378136166e-09	5.0260655047e-11	0	1	1	0	0.4	1	1.1	0.9;
	481	1	0	0	1.57356573589e-10	0	1	1	0	0.4	1	1.1	0.9;
	482	1	1.82397429729e-09	1.36798072297e-09	8.38520376354e-11	0	1	1	0	0.4	1	1.1	0.9;
	486	1	0	0	1.36413838433e-10	0	1	1	0	0.4	1	1.1	0.9;
	487	1	1.74617387024e-09	1.30963040268e-09	6.46600814951e-11	0	1	1	0	0.4	1	1.1	0.9;
	491	1	0	0	1.07370401369e-10	0	1	1	0	0.4	1	1.1	0.9;
	492	1	1.46608662182e-09	1.09956496636e-09	3.61804136348e-11	0	1	1	0	0.4	1	1.1	0.9;
	496	1	0	0	1.1987309984e-10	0	1	1	0	0.4	1	1.1	0.9;
	497	1	1.89982512975e-09	1.42486884731e-09	5.24231727287e-11	0	1	1	0	0.4	1	1.1	0.9;
	501	1	0	0	1.33512006622e-10	0	1	1	0	0.4	1	1.1	0.9;
...
];

%% generator data
%	bus	Pg	Qg	Qmax	Qmin	Vg	mBase	status	Pmax	Pmin	Pc1	Pc2	Qc1min	Qc1max	Qc2min	Qc2max	ramp_agc	ramp_10	ramp_30	ramp_q	apf
mpc.gen = [
	74649	0	0	100000	-100000	1.05	100	1	100000	0	0	0	0	0	0	0	0	0	0	0	0;
];

%% branch data
%	fbus	tbus	r	x	b	rateA	rateB	rateC	ratio	angle	status	angmin	angmax
mpc.branch = [
	74649	1	0.00497518595105	0.0497518595105	0	0	0	0	0	0	1	-360	360;
	3	12	0.0603297553933	0.0986343619923	0.000146270947733	0	0	0	0	0	1	-360	360;
	14	16	0.58582004948	0.224659145189	1.64671842661e-09	0	0	0	0	0	1	-360	360;
	16	17	6.00024077067	0.500889664334	1.80438467889e-09	0	0	0	0	0	1	-360	360;
	16	21	0.744736238684	0.285602732311	2.09342593907e-09	0	0	0	0	0	1	-360	360;
	21	22	4.53105928929	0.378244949366	1.36257431547e-09	0	0	0	0	0	1	-360	360;
	21	26	0.571299278512	0.219090500012	1.60590107811e-09	0	0	0	0	0	1	-360	360;
	26	27	9.04211169986	0.754819759293	2.71913218813e-09	0	0	0	0	0	1	-360	360;
	26	31	0.682345242728	0.261676088231	1.91804716399e-09	0	0	0	0	0	1	-360	360;
	31	32	9.46890033775	0.790447332543	2.8474755178e-09	0	0	0	0	0	1	-360	360;
	31	36	0.723428342595	0.277431257597	2.03353023363e-09	0	0	0	0	0	1	-360	360;
	36	37	3.66381475278	0.30584888371	1.10177765508e-09	0	0	0	0	0	1	-360	360;
	36	41	0.602614508003	0.231099738506	1.69392702649e-09	0	0	0	0	0	1	-360	360;
	41	42	5.27001335735	0.439931549831	1.58479163137e-09	0	0	0	0	0	1	-360	360;
	41	46	0.53888205467	0.206658652034	1.51477746449e-09	0	0	0	0	0	1	-360	360;
	46	47	4.63647343774	0.38704473915	1.39427432246e-09	0	0	0	0	0	1	-360	360;
	46	51	0.722835530368	0.277203916986	2.03186386046e-09	0	0	0	0	0	1	-360	360;
	51	52	11.4611708253	0.956758608024	3.44658853365e-09	0	0	0	0	0	1	-360	360;
	51	56	0.657150462553	0.252014012338	1.84722557158e-09	0	0	0	0	0	1	-360	360;
	56	57	12.5357690365	1.04646419783	3.76974032411e-09	0	0	0	0	0	1	-360	360;
	56	61	0.564514311991	0.216488498288	1.58682878892e-09	0	0	0	0	0	1	-360	360;
	61	62	4.34364144826	0.362599633941	1.30621426362e-09	0	0	0	0	0	1	-360	360;
	61	66	0.735244313161	0.28196262495	2.06674448855e-09	0	0	0	0	0	1	-360	360;
	66	67	12.9355270322	1.07983530008	3.88995503387e-09	0	0	0	0	0	1	-360	360;
	66	71	0.72978343486	0.279868404631	2.05139416223e-09	0	0	0	0	0	1	-360	360;
	71	72	5.34736448496	0.44638868744	1.60805256287e-09	0	0	0	0	0	1	-360	360;
	71	76	0.695718730716	0.266804755954	1.9556395426e-09	0	0	0	0	0	1	-360	360;
	76	77	10.9632482691	0.915192898983	3.29685390365e-09	0	0	0	0	0	1	-360	360;
	76	81	0.652541018335	0.250246312857	1.83426859488e-09	0	0	0	0	0	1	-360	360;
	81	82	6.23311778679	0.520329832636	1.87441515534e-09	0	0	0	0	0	1	-360	360;
	81	86	0.692201704297	0.265455993395	1.94575331181e-09	0	0	0	0	0	1	-360	360;
	86	87	5.96147609437	0.497653656573	1.79272741535e-09	0	0	0	0	0	1	-360	360;
	86	91	0.726614167957	0.278653006158	2.04248547054e-09	0	0	0	0	0	1	-360	360;
	91	92	12.2731500396	1.02454122069	3.69076587749e-09	0	0	0	0	0	1	-360	360;
	91	96	0.750132551978	0.287672192263	2.10859477555e-09	0	0	0	0	0	1	-360	360;
	96	97	9.70865993	0.810462046331	2.91957571368e-09	0	0	0	0	0	1	-360	360;
	96	101	0.643552049319	0.246799086875	1.80900093645e-09	0	0	0	0	0	1	-360	360;
	101	102	13.1317402528	1.0962148385	3.94896002094e-09	0	0	0	0	0	1	-360	360;
	101	106	0.550954807278	0.211288494053	1.5487135242e-09	0	0	0	0	0	1	-360	360;
	106	107	11.6256624632	0.970490083882	3.4960542472e-09	0	0	0	0	0	1	-360	360;
	106	111	0.625321710528	0.239807840445	1.75775613041e-09	0	0	0	0	0	1	-360	360;
	111	112	9.88496434707	0.825179632451	2.97259375098e-09	0	0	0	0	0	1	-360	360;
	111	116	0.642080327484	0.246234688695	1.80486398097e-09	0	0	0	0	0	1	-360	360;
	116	117	11.7420263859	0.98020394178	3.53104705622e-09	0	0	0	0	0	1	-360	360;
	116	121	0.556195365444	0.21329822267	1.56344453879e-09	0	0	0	0	0	1	-360	360;
	121	122	10.930188083	0.912433092147	3.28691208706e-09	0	0	0	0	0	1	-360	360;
	121	126	0.668441270303	0.256343982301	1.8789636133e-09	0	0	0	0	0	1	-360	360;
	126	127	8.63991285268	0.721244899006	2.59818346866e-09	0	0	0	0	0	1	-360	360;
	126	131	0.690172978141	0.264677986763	1.94005063784e-09	0	0	0	0	0	1	-360	360;
	131	132	4.82876097904	0.403096568685	1.4520987843e-09	0	0	0	0	0	1	-360	360;
	131	136	0.602595184305	0.231092327962	1.69387270829e-09	0	0	0	0	0	1	-360	360;
	136	137	6.75804826198	0.564150115783	2.03227157196e-09	0	0	0	0	0	1	-360	360;
	136	141	0.740532132147	0.283990477862	2.08160835156e-09	0	0	0	0	0	1	-360	360;
	141	142	6.43341320341	0.537050145676	1.93464773513e-09	0	0	0	0	0	1	-360	360;
	141	146	0.750001668631	0.287621999135	2.10822686732e-09	0	0	0	0	0	1	-360	360;
	146	147	12.9790283311	1.08346671285	3.90303668845e-09	0	0	0	0	0	1	-360	360;
	146	151	0.671809829445	0.25763580838	1.88843250809e-09	0	0	0	0	0	1	-360	360;
	151	152	5.24154836405	0.437555341695	1.57623167523e-09	0	0	0	0	0	1	-360	360;
	151	156	0.751512074807	0.288201232572	2.11247256304e-09	0	0	0	0	0	1	-360	360;
	156	157	10.0511213012	0.839050126014	3.02256025629e-09	0	0	0	0	0	1	-360	360;
	156	161	0.741270883539	0.284273785435	2.08368495431e-09	0	0	0	0	0	1	-360	360;
	161	162	12.5601439884	1.04849897643	3.77707032827e-09	0	0	0	0	0	1	-360	360;
	161	166	0.741087471795	0.284203447921	2.0831693907e-09	0	0	0	0	0	1	-360	360;
	166	167	13.8030487071	1.15225450077	4.15083503497e-09	0	0	0	0	0	1	-360	360;
	166	171	0.766831007122	0.294075968751	2.15553351349e-09	0	0	0	0	0	1	-360	360;
	171	172	9.33698839024	0.779435552577	2.80780712679e-09	0	0	0	0	0	1	-360	360;
	171	176	0.758813535024	0.291001307121	2.13299669685e-09	0	0	0	0	0	1	-360	360;
	176	177	5.37402502644	0.448614263077	1.61606988658e-09	0	0	0	0	0	1	-360	360;
	176	181	0.763323448297	0.292730836968	2.14567389575e-09	0	0	0	0	0	1	-360	360;
	181	182	13.6085985964	1.1360221437	4.09236024804e-09	0	0	0	0	0	1	-360	360;
	181	186	0.698584360501	0.267903711066	1.96369472162e-09	0	0	0	0	0	1	-360	360;
	186	187	7.89538573435	0.659093069998	2.37429023226e-09	0	0	0	0	0	1	-360	360;
	186	191	0.746650626796	0.286336890858	2.09880721303e-09	0	0	0	0	0	1	-360	360;
	191	192	8.46133496187	0.706337527252	2.54448175527e-09	0	0	0	0	0	1	-360	360;
	191	196	0.520416321952	0.199577133176	1.46287097485e-09	0	0	0	0	0	1	-360	360;
	196	197	9.56571641364	0.798529370182	2.87658992349e-09	0	0	0	0	0	1	-360	360;
	196	201	0.697269043736	0.267399293472	1.95999741499e-09	0	0	0	0	0	1	-360	360;
	201	202	4.22848279914	0.352986390189	1.27158390293e-09	0	0	0	0	0	1	-360	360;
	201	206	0.533245767596	0.204497163302	1.49893407061e-09	0	0	0	0	0	1	-360	360;
	206	207	6.15973746429	0.514204170932	1.85234831924e-09	0	0	0	0	0	1	-360	360;
	206	211	0.549070301047	0.210565795062	1.54341624709e-09	0	0	0	0	0	1	-360	360;
	211	212	13.6797629063	1.14196281652	4.11376068767e-09	0	0	0	0	0	1	-360	360;
	14	216	0.717039501755	0.274981168149	2.01557143904e-09	0	0	0	0	0	1	-360	360;
	216	217	12.2995770072	1.02674729799	3.69871296117e-09	0	0	0	0	0	1	-360	360;
	216	221	0.62599567947	0.240066304263	1.7596506321e-09	0	0	0	0	0	1	-360	360;
	221	222	8.16045702943	0.681220760718	2.45400213082e-09	0	0	0	0	0	1	-360	360;
	221	226	0.688391370928	0.263994749045	1.93504260606e-09	0	0	0	0	0	1	-360	360;
	226	227	14.204281185	1.18574869023	4.27149314912e-09	0	0	0	0	0	1	-360	360;
	226	231	0.602370420889	0.231006132283	1.69324090667e-09	0	0	0	0	0	1	-360	360;
	231	232	12.8836570326	1.07550528272	3.87435675436e-09	0	0	0	0	0	1	-360	360;
	231	236	0.630517988567	0.241800587849	1.7723626752e-09	0	0	0	0	0	1	-360	360;
	236	237	8.14216142946	0.679693475851	2.44850030156e-09	0	0	0	0	0	1	-360	360;
	236	241	0.629106166851	0.241259161074	1.76839409674e-09	0	0	0	0	0	1	-360	360;
	241	242	12.8801700357	1.07521419429	3.87330814916e-09	0	0	0	0	0	1	-360	360;
	241	246	0.772315235616	0.296179143756	2.17094947633e-09	0	0	0	0	0	1	-360	360;
	246	247	12.6071724016	1.05242482657	3.79121265214e-09	0	0	0	0	0	1	-360	360;
	246	251	0.619651619923	0.237633388223	1.74181771606e-09	0	0	0	0	0	1	-360	360;
	251	252	8.78339544375	0.733222576174	2.6413313687e-09	0	0	0	0	0	1	-360	360;
	251	256	0.612585578137	0.234923595499	1.72195533473e-09	0	0	0	0	0	1	-360	360;
	256	257	14.216610972	1.1867779594	4.27520094677e-09	0	0	0	0	0	1	-360	360;
	256	261	0.623924427642	0.239271989242	1.75382842005e-09	0	0	0	0	0	1	-360	360;
	261	262	13.9148308155	1.16158587677	4.18445000668e-09	0	0	0	0	0	1	-360	360;
	261	266	0.699990130889	0.268442817186	1.96764629003e-09	0	0	0	0	0	1	-360	360;
	266	267	5.26265327249	0.439317142747	1.58257831613e-09	0	0	0	0	0	1	-360	360;
	266	271	0.704452323538	0.270154046405	1.98018934803e-09	0	0	0	0	0	1	-360	360;
	271	272	4.25094881748	0.354861814329	1.27833985505e-09	0	0	0	0	0	1	-360	360;
	271	276	0.637773043156	0.244582866065	1.79275636451e-09	0	0	0	0	0	1	-360	360;
	276	277	13.5058925043	1.12744841775	4.06147460425e-09	0	0	0	0	0	1	-360	360;
	276	281	0.535628702299	0.205411007193	1.50563241166e-09	0	0	0	0	0	1	-360	360;
	281	282	5.59717536057	0.467242464883	1.68317536774e-09	0	0	0	0	0	1	-360	360;
	281	286	0.618972204464	0.237372835693	1.73990790441e-09	0	0	0	0	0	1	-360	360;
	286	287	13.7453332467	1.14743651451	4.13347891602e-09	0	0	0	0	0	1	-360	360;
	286	291	0.525233478039	0.201424489151	1.47641182191e-09	0	0	0	0	0	1	-360	360;
	291	292	4.47763359049	0.373785064945	1.34650820812e-09	0	0	0	0	0	1	-360	360;
	291	296	0.596465235339	0.22874152229	1.67664164915e-09	0	0	0	0	0	1	-360	360;
	296	297	6.40513015573	0.534689126043	1.92614249345e-09	0	0	0	0	0	1	-360	360;
	296	301	0.583395736977	0.223729433112	1.6399037741e-09	0	0	0	0	0	1	-360	360;
	301	302	5.00478147919	0.417790453915	1.50503144247e-09	0	0	0	0	0	1	-360	360;
	301	306	0.754222220414	0.289240560256	2.12009068181e-09	0	0	0	0	0	1	-360	360;
	306	307	13.6821352865	1.1421608587	4.1144741068e-09	0	0	0	0	0	1	-360	360;
	306	311	0.771494835323	0.295864524226	2.16864336154e-09	0	0	0	0	0	1	-360	360;
	311	312	4.38359214936	0.36593464899	1.31822818702e-09	0	0	0	0	0	1	-360	360;
	311	316	0.755314289833	0.289659363577	2.12316044843e-09	0	0	0	0	0	1	-360	360;
	316	317	13.0905668726	1.09277775632	3.93657841504e-09	0	0	0	0	0	1	-360	360;
	316	321	0.555619809332	0.213077499695	1.56182667191e-09	0	0	0	0	0	1	-360	360;
	321	322	12.5825627922	1.05037045918	3.78381208208e-09	0	0	0	0	0	1	-360	360;
	321	326	0.651202228345	0.249732893394	1.83050530589e-09	0	0	0	0	0	1	-360	360;
	326	327	10.794150165	0.901076883341	3.24600293952e-09	0	0	0	0	0	1	-360	360;
	326	331	0.756774476011	0.290219337888	2.12726497761e-09	0	0	0	0	0	1	-360	360;
	331	332	5.04157607705	0.420862002954	1.51609626656e-09	0	0	0	0	0	1	-360	360;
	331	336	0.657455087528	0.252130834537	1.84808186108e-09	0	0	0	0	0	1	-360	360;
	336	337	6.53000416402	0.545113391083	1.96369444444e-09	0	0	0	0	0	1	-360	360;
	336	341	0.567426307924	0.217605234592	1.59501430146e-09	0	0	0	0	0	1	-360	360;
	341	342	10.4316279942	0.870814162997	3.13698573909e-09	0	0	0	0	0	1	-360	360;
	341	346	0.748124146453	0.286901978494	2.10294922212e-09	0	0	0	0	0	1	-360	360;
	346	347	12.715805659	1.06149334197	3.82388070541e-09	0	0	0	0	0	1	-360	360;
	346	351	0.526352341163	0.201853567728	1.47955690464e-09	0	0	0	0	0	1	-360	360;
	351	352	7.18990643184	0.600200884745	2.16213940475e-09	0	0	0	0	0	1	-360	360;
	351	356	0.7058669589	0.270696552199	1.98416583555e-09	0	0	0	0	0	1	-360	360;
	356	357	9.54155454027	0.796512379014	2.86932399604e-09	0	0	0	0	0	1	-360	360;
	356	361	0.534375293969	0.204930331182	1.50210912735e-09	0	0	0	0	0	1	-360	360;
	361	362	13.1147408028	1.09479575397	3.94384796821e-09	0	0	0	0	0	1	-360	360;
	361	366	0.729908217621	0.279916258214	2.05174492194e-09	0	0	0	0	0	1	-360	360;
	366	367	9.87393126372	0.824258609841	2.96927589636e-09	0	0	0	0	0	1	-360	360;
	366	371	0.594376525107	0.227940512056	1.67077036218e-09	0	0	0	0	0	1	-360	360;
	371	372	13.2858941755	1.10908333987	3.99531699009e-09	0	0	0	0	0	1	-360	360;
	371	376	0.569094708622	0.218245058161	1.59970411393e-09	0	0	0	0	0	1	-360	360;
	376	377	6.283992501	0.524576765301	1.88971413389e-09	0	0	0	0	0	1	-360	360;
	376	381	0.765763033329	0.293666405985	2.15253147877e-09	0	0	0	0	0	1	-360	360;
	381	382	11.6740554951	0.974529850029	3.51060693746e-09	0	0	0	0	0	1	-360	360;
	381	386	0.76637305348	0.293900345752	2.15424622279e-09	0	0	0	0	0	1	-360	360;
	386	387	12.3348826056	1.02969454795	3.70933001527e-09	0	0	0	0	0	1	-360	360;
	386	391	0.704665351477	0.270235741586	1.98078816166e-09	0	0	0	0	0	1	-360	360;
	391	392	7.1751245763	0.598966921152	2.15769422419e-09	0	0	0	0	0	1	-360	360;
	391	396	0.723767949018	0.277561495012	2.03448485469e-09	0	0	0	0	0	1	-360	360;
	396	397	6.47024905657	0.540125138635	1.94572496546e-09	0	0	0	0	0	1	-360	360;
	396	401	0.739582946598	0.283626469812	2.07894022619e-09	0	0	0	0	0	1	-360	360;
	401	402	12.850458491	1.0727339262	3.86437333169e-09	0	0	0	0	0	1	-360	360;
	401	406	0.59358664834	0.22763759815	1.66855004789e-09	0	0	0	0	0	1	-360	360;
	406	407	12.1685686627	1.01581094924	3.65931630051e-09	0	0	0	0	0	1	-360	360;
	406	411	0.564730920494	0.216571566597	1.58743766739e-09	0	0	0	0	0	1	-360	360;
	411	412	7.13282416135	0.595435756078	2.14497369787e-09	0	0	0	0	0	1	-360	360;
	14	416	0.680181547691	0.260846321688	1.91196509751e-09	0	0	0	0	0	1	-360	360;
	416	417	7.90278258138	0.659710545924	2.37651460257e-09	0	0	0	0	0	1	-360	360;
	416	421	0.756853563634	0.290249667607	2.12748728998e-09	0	0	0	0	0	1	-360	360;
	421	422	4.83727826215	0.403807576666	1.45466009071e-09	0	0	0	0	0	1	-360	360;
	421	426	0.762852586309	0.292550263681	2.14435032017e-09	0	0	0	0	0	1	-360	360;
	426	427	6.45580922095	0.538919726271	1.94138263669e-09	0	0	0	0	0	1	-360	360;
	426	431	0.702600353118	0.269443824739	1.97498352788e-09	0	0	0	0	0	1	-360	360;
	431	432	6.97558354366	0.582309582775	2.09768850178e-09	0	0	0	0	0	1	-360	360;
	431	436	0.614187824086	0.235538049043	1.72645918866e-09	0	0	0	0	0	1	-360	360;
	436	437	9.81008984395	0.818929239147	2.9500775868e-09	0	0	0	0	0	1	-360	360;
	436	441	0.515435504141	0.197667013724	1.44887008076e-09	0	0	0	0	0	1	-360	360;
	441	442	13.572607253	1.13301764895	4.0815369776e-09	0	0	0	0	0	1	-360	360;
	441	446	0.704787206074	0.270282472232	1.98113069041e-09	0	0	0	0	0	1	-360	360;
	446	447	5.71803498563	0.477331616192	1.71952011857e-09	0	0	0	0	0	1	-360	360;
	446	451	0.675462518061	0.259036596732	1.89870008028e-09	0	0	0	0	0	1	-360	360;
	451	452	10.7458962285	0.897048728639	3.23149207786e-09	0	0	0	0	0	1	-360	360;
	451	456	0.594640800519	0.228041860393	1.67151323056e-09	0	0	0	0	0	1	-360	360;
	456	457	7.99673604605	0.667553617757	2.4047681675e-09	0	0	0	0	0	1	-360	360;
	456	461	0.547776608258	0.210069670157	1.53977972466e-09	0	0	0	0	0	1	-360	360;
	461	462	8.12668703599	0.678401700396	2.44384686187e-09	0	0	0	0	0	1	-360	360;
	461	466	0.747472428026	0.286652047641	2.1011172658e-09	0	0	0	0	0	1	-360	360;
	466	467	10.2297701876	0.853963424356	3.07628331938e-09	0	0	0	0	0	1	-360	360;
	466	471	0.593247799437	0.22750765124	1.66759755619e-09	0	0	0	0	0	1	-360	360;
	471	472	5.85978207139	0.489164416394	1.76214611969e-09	0	0	0	0	0	1	-360	360;
	471	476	0.597979176657	0.229322111436	1.68089728204e-09	0	0	0	0	0	1	-360	360;
	476	477	8.35675549403	0.697607415154	2.51303275235e-09	0	0	0	0	0	1	-360	360;
	476	481	0.71938686527	0.275881370662	2.0221697908e-09	0	0	0	0	0	1	-360	360;
	481	482	13.9419387897	1.16384880331	4.19260188177e-09	0	0	0	0	0	1	-360	360;
	481	486	0.588074999286	0.225523907493	1.65305700686e-09	0	0	0	0	0	1	-360	360;
	486	487	10.7509241727	0.897468452674	3.23300407475e-09	0	0	0	0	0	1	-360	360;
	486	491	0.688244885168	0.263938572468	1.93463084003e-09	0	0	0	0	0	1	-360	360;
	491	492	6.01565718028	0.502176599398	1.80902068174e-09	0	0	0	0	0	1	-360	360;
	491	496	0.5780469551	0.221678201228	1.62486854667e-09	0	0	0	0	0	1	-360	360;
	496	497	8.71631371111	0.727622709797	2.62115863644e-09	0	0	0	0	0	1	-360	360;
	496	501	0.621718560332	0.238426049836	1.74762780887e-09	0	0	0	0	0	1	-360	360;
	501	502	10.3834080111	0.866788842664	3.12248508784e-09	0	0	0	0	0	1	-360	360;
	501	506	0.64230212102	0.24631974544	1.80548743437e-09	0	0	0	0	0	1	-360	360;
	506	507	6.22420723921	0.519585995621	1.87173558694e-09	0	0	0	0	0	1	-360	360;
...
];
